
     RDKit          3D

  8  7  0  0  0  0  0  0  0  0999 V2000
    1.7787   -1.2106    0.2383 Cl  0  0  0  0  0  0  0  0  0  0  0  0
    0.7180    0.1750   -0.0491 C   0  0  0  0  0  0  0  0  0  0  0  0
   -0.7364   -0.2151    0.0371 C   0  0  0  0  0  0  0  0  0  0  0  0
   -1.7202    1.2283   -0.2626 Cl  0  0  0  0  0  0  0  0  0  0  0  0
    0.9554    0.9475    0.7092 H   0  0  0  0  0  0  0  0  0  0  0  0
    0.9617    0.5993   -1.0389 H   0  0  0  0  0  0  0  0  0  0  0  0
   -1.0334   -0.9503   -0.7080 H   0  0  0  0  0  0  0  0  0  0  0  0
   -0.9238   -0.5741    1.0740 H   0  0  0  0  0  0  0  0  0  0  0  0
  1  2  1  0
  2  3  1  0
  3  4  1  0
  2  5  1  0
  2  6  1  0
  3  7  1  0
  3  8  1  0
M  END
$$$$
>  <dihedral_0>  (1) 
3

>  <dihedral_1>  (1) 
2

>  <dihedral_2>  (1) 
1

>  <dihedral_3>  (1) 
0
