
     RDKit          3D

  8  7  0  0  0  0  0  0  0  0999 V2000
    1.6004   -0.2222    1.2939 Cl  0  0  0  0  0  0  0  0  0  0  0  0
    0.7147    0.1115   -0.2077 C   0  0  0  0  0  0  0  0  0  0  0  0
   -0.7663   -0.2120   -0.0558 C   0  0  0  0  0  0  0  0  0  0  0  0
   -1.3491    0.8394    1.2704 Cl  0  0  0  0  0  0  0  0  0  0  0  0
    0.8713    1.1812   -0.4387 H   0  0  0  0  0  0  0  0  0  0  0  0
    1.1735   -0.4631   -1.0347 H   0  0  0  0  0  0  0  0  0  0  0  0
   -1.3187    0.0379   -0.9841 H   0  0  0  0  0  0  0  0  0  0  0  0
   -0.9257   -1.2727    0.1567 H   0  0  0  0  0  0  0  0  0  0  0  0
  1  2  1  0
  2  3  1  0
  3  4  1  0
  2  5  1  0
  2  6  1  0
  3  7  1  0
  3  8  1  0
M  END
$$$$
